<?xml version="1.0" ?>
<template encoding-version="1.0">
  <description>This flow reads data from an OPC UA server using the data access profile.</description>
  <groupId>1c284fc0-015c-1000-adbb-69a90ed64c61</groupId>
  <name>OPC UA - Data Access Flow</name>
  <snippet>
    <processGroups>
      <id>1eacb88f-015c-1000-0000-000000000000</id>
      <parentGroupId>1c284fc0-015c-1000-0000-000000000000</parentGroupId>
      <position>
        <x>0.0</x>
        <y>346.72835324853656</y>
      </position>
      <comments></comments>
      <contents>
        <connections>
          <id>305d4aba-015c-1000-0000-000000000000</id>
          <parentGroupId>1eacb88f-015c-1000-0000-000000000000</parentGroupId>
          <backPressureDataSizeThreshold>1 GB</backPressureDataSizeThreshold>
          <backPressureObjectThreshold>10000</backPressureObjectThreshold>
          <destination>
            <groupId>1eacb88f-015c-1000-0000-000000000000</groupId>
            <id>1eae5760-015c-1000-0000-000000000000</id>
            <type>PROCESSOR</type>
          </destination>
          <flowFileExpiration>0 sec</flowFileExpiration>
          <labelIndex>1</labelIndex>
          <name></name>
          <selectedRelationships>success</selectedRelationships>
          <source>
            <groupId>1eacb88f-015c-1000-0000-000000000000</groupId>
            <id>1eae34b4-015c-1000-0000-000000000000</id>
            <type>PROCESSOR</type>
          </source>
          <zIndex>0</zIndex>
        </connections>
        <connections>
          <id>305d9045-015c-1000-0000-000000000000</id>
          <parentGroupId>1eacb88f-015c-1000-0000-000000000000</parentGroupId>
          <backPressureDataSizeThreshold>1 GB</backPressureDataSizeThreshold>
          <backPressureObjectThreshold>10000</backPressureObjectThreshold>
          <destination>
            <groupId>1eacb88f-015c-1000-0000-000000000000</groupId>
            <id>1eaf4416-015c-1000-0000-000000000000</id>
            <type>PROCESSOR</type>
          </destination>
          <flowFileExpiration>0 sec</flowFileExpiration>
          <labelIndex>1</labelIndex>
          <name></name>
          <selectedRelationships>splits</selectedRelationships>
          <source>
            <groupId>1eacb88f-015c-1000-0000-000000000000</groupId>
            <id>1eae5760-015c-1000-0000-000000000000</id>
            <type>PROCESSOR</type>
          </source>
          <zIndex>0</zIndex>
        </connections>
        <connections>
          <id>305dbce3-015c-1000-0000-000000000000</id>
          <parentGroupId>1eacb88f-015c-1000-0000-000000000000</parentGroupId>
          <backPressureDataSizeThreshold>1 GB</backPressureDataSizeThreshold>
          <backPressureObjectThreshold>10000</backPressureObjectThreshold>
          <destination>
            <groupId>1eacb88f-015c-1000-0000-000000000000</groupId>
            <id>1eae1a15-015c-1000-0000-000000000000</id>
            <type>PROCESSOR</type>
          </destination>
          <flowFileExpiration>0 sec</flowFileExpiration>
          <labelIndex>1</labelIndex>
          <name></name>
          <selectedRelationships>unmatched</selectedRelationships>
          <source>
            <groupId>1eacb88f-015c-1000-0000-000000000000</groupId>
            <id>1eaf4416-015c-1000-0000-000000000000</id>
            <type>PROCESSOR</type>
          </source>
          <zIndex>0</zIndex>
        </connections>
        <connections>
          <id>305e07b5-015c-1000-0000-000000000000</id>
          <parentGroupId>1eacb88f-015c-1000-0000-000000000000</parentGroupId>
          <backPressureDataSizeThreshold>1 GB</backPressureDataSizeThreshold>
          <backPressureObjectThreshold>10000</backPressureObjectThreshold>
          <destination>
            <groupId>1eacb88f-015c-1000-0000-000000000000</groupId>
            <id>1eb0e22b-015c-1000-0000-000000000000</id>
            <type>PROCESSOR</type>
          </destination>
          <flowFileExpiration>0 sec</flowFileExpiration>
          <labelIndex>1</labelIndex>
          <name></name>
          <selectedRelationships>Success</selectedRelationships>
          <source>
            <groupId>1eacb88f-015c-1000-0000-000000000000</groupId>
            <id>1eae1a15-015c-1000-0000-000000000000</id>
            <type>PROCESSOR</type>
          </source>
          <zIndex>0</zIndex>
        </connections>
        <controllerServices>
          <id>21fd604e-015c-1000-0000-000000000000</id>
          <parentGroupId>1c284fc0-015c-1000-0000-000000000000</parentGroupId>
          <comments></comments>
          <descriptors>
            <entry>
              <key>Endpoint URL</key>
              <value>
                <name>Endpoint URL</name>
              </value>
            </entry>
            <entry>
              <key>Security Policy</key>
              <value>
                <name>Security Policy</name>
              </value>
            </entry>
            <entry>
              <key>Certificate for Server application</key>
              <value>
                <name>Certificate for Server application</name>
              </value>
            </entry>
            <entry>
              <key>Application Name</key>
              <value>
                <name>Application Name</name>
              </value>
            </entry>
          </descriptors>
          <name>StandardOPCUAService</name>
          <properties>
            <entry>
              <key>Endpoint URL</key>
              <value>opc.tcp://10.0.0.20:49320</value>
            </entry>
            <entry>
              <key>Security Policy</key>
              <value>None</value>
            </entry>
            <entry>
              <key>Certificate for Server application</key>
            </entry>
            <entry>
              <key>Application Name</key>
              <value>opcNifi</value>
            </entry>
          </properties>
          <state>ENABLED</state>
          <type>com.hashmapinc.tempus.processors.nifi_opcua_services.StandardOPCUAService</type>
        </controllerServices>
        <processors>
          <id>1eae1a15-015c-1000-0000-000000000000</id>
          <parentGroupId>1eacb88f-015c-1000-0000-000000000000</parentGroupId>
          <position>
            <x>1181.2658180522626</x>
            <y>278.9555897963671</y>
          </position>
          <config>
            <bulletinLevel>WARN</bulletinLevel>
            <comments></comments>
            <concurrentlySchedulableTaskCount>1</concurrentlySchedulableTaskCount>
            <descriptors>
              <entry>
                <key>OPC UA Service</key>
                <value>
                  <identifiesControllerService>com.hashmapinc.tempus.processors.nifi_opcua_services.OPCUAService</identifiesControllerService>
                  <name>OPC UA Service</name>
                </value>
              </entry>
            </descriptors>
            <executionNode>ALL</executionNode>
            <lossTolerant>false</lossTolerant>
            <penaltyDuration>30 sec</penaltyDuration>
            <properties>
              <entry>
                <key>OPC UA Service</key>
                <value>21fd604e-015c-1000-0000-000000000000</value>
              </entry>
            </properties>
            <runDurationMillis>0</runDurationMillis>
            <schedulingPeriod>0 sec</schedulingPeriod>
            <schedulingStrategy>TIMER_DRIVEN</schedulingStrategy>
            <yieldDuration>1 sec</yieldDuration>
          </config>
          <name>GetValue</name>
          <relationships>
            <autoTerminate>true</autoTerminate>
            <name>FAILURE</name>
          </relationships>
          <relationships>
            <autoTerminate>false</autoTerminate>
            <name>Success</name>
          </relationships>
          <style></style>
          <type>com.hashmapinc.tempus.processors.nifi_opcua_bundle.GetValue</type>
        </processors>
        <processors>
          <id>1eae34b4-015c-1000-0000-000000000000</id>
          <parentGroupId>1eacb88f-015c-1000-0000-000000000000</parentGroupId>
          <position>
            <x>87.73231547352714</x>
            <y>264.765259290996</y>
          </position>
          <config>
            <bulletinLevel>WARN</bulletinLevel>
            <comments></comments>
            <concurrentlySchedulableTaskCount>1</concurrentlySchedulableTaskCount>
            <descriptors>
              <entry>
                <key>Input Directory</key>
                <value>
                  <name>Input Directory</name>
                </value>
              </entry>
              <entry>
                <key>File Filter</key>
                <value>
                  <name>File Filter</name>
                </value>
              </entry>
              <entry>
                <key>Path Filter</key>
                <value>
                  <name>Path Filter</name>
                </value>
              </entry>
              <entry>
                <key>Batch Size</key>
                <value>
                  <name>Batch Size</name>
                </value>
              </entry>
              <entry>
                <key>Keep Source File</key>
                <value>
                  <name>Keep Source File</name>
                </value>
              </entry>
              <entry>
                <key>Recurse Subdirectories</key>
                <value>
                  <name>Recurse Subdirectories</name>
                </value>
              </entry>
              <entry>
                <key>Polling Interval</key>
                <value>
                  <name>Polling Interval</name>
                </value>
              </entry>
              <entry>
                <key>Ignore Hidden Files</key>
                <value>
                  <name>Ignore Hidden Files</name>
                </value>
              </entry>
              <entry>
                <key>Minimum File Age</key>
                <value>
                  <name>Minimum File Age</name>
                </value>
              </entry>
              <entry>
                <key>Maximum File Age</key>
                <value>
                  <name>Maximum File Age</name>
                </value>
              </entry>
              <entry>
                <key>Minimum File Size</key>
                <value>
                  <name>Minimum File Size</name>
                </value>
              </entry>
              <entry>
                <key>Maximum File Size</key>
                <value>
                  <name>Maximum File Size</name>
                </value>
              </entry>
            </descriptors>
            <executionNode>ALL</executionNode>
            <lossTolerant>false</lossTolerant>
            <penaltyDuration>30 sec</penaltyDuration>
            <properties>
              <entry>
                <key>Input Directory</key>
                <value>/Users/chris/files</value>
              </entry>
              <entry>
                <key>File Filter</key>
                <value>[^\.].*</value>
              </entry>
              <entry>
                <key>Path Filter</key>
              </entry>
              <entry>
                <key>Batch Size</key>
                <value>10</value>
              </entry>
              <entry>
                <key>Keep Source File</key>
                <value>true</value>
              </entry>
              <entry>
                <key>Recurse Subdirectories</key>
                <value>false</value>
              </entry>
              <entry>
                <key>Polling Interval</key>
                <value>0 sec</value>
              </entry>
              <entry>
                <key>Ignore Hidden Files</key>
                <value>true</value>
              </entry>
              <entry>
                <key>Minimum File Age</key>
                <value>0 sec</value>
              </entry>
              <entry>
                <key>Maximum File Age</key>
              </entry>
              <entry>
                <key>Minimum File Size</key>
                <value>0 B</value>
              </entry>
              <entry>
                <key>Maximum File Size</key>
              </entry>
            </properties>
            <runDurationMillis>0</runDurationMillis>
            <schedulingPeriod>1 sec</schedulingPeriod>
            <schedulingStrategy>TIMER_DRIVEN</schedulingStrategy>
            <yieldDuration>1 sec</yieldDuration>
          </config>
          <name>GetFile</name>
          <relationships>
            <autoTerminate>false</autoTerminate>
            <name>success</name>
          </relationships>
          <style></style>
          <type>org.apache.nifi.processors.standard.GetFile</type>
        </processors>
        <processors>
          <id>1eae5760-015c-1000-0000-000000000000</id>
          <parentGroupId>1eacb88f-015c-1000-0000-000000000000</parentGroupId>
          <position>
            <x>631.1004432964031</x>
            <y>280.3680587065844</y>
          </position>
          <config>
            <bulletinLevel>WARN</bulletinLevel>
            <comments></comments>
            <concurrentlySchedulableTaskCount>1</concurrentlySchedulableTaskCount>
            <descriptors>
              <entry>
                <key>Line Split Count</key>
                <value>
                  <name>Line Split Count</name>
                </value>
              </entry>
              <entry>
                <key>Maximum Fragment Size</key>
                <value>
                  <name>Maximum Fragment Size</name>
                </value>
              </entry>
              <entry>
                <key>Header Line Count</key>
                <value>
                  <name>Header Line Count</name>
                </value>
              </entry>
              <entry>
                <key>Header Line Marker Characters</key>
                <value>
                  <name>Header Line Marker Characters</name>
                </value>
              </entry>
              <entry>
                <key>Remove Trailing Newlines</key>
                <value>
                  <name>Remove Trailing Newlines</name>
                </value>
              </entry>
            </descriptors>
            <executionNode>ALL</executionNode>
            <lossTolerant>false</lossTolerant>
            <penaltyDuration>30 sec</penaltyDuration>
            <properties>
              <entry>
                <key>Line Split Count</key>
                <value>1</value>
              </entry>
              <entry>
                <key>Maximum Fragment Size</key>
              </entry>
              <entry>
                <key>Header Line Count</key>
                <value>0</value>
              </entry>
              <entry>
                <key>Header Line Marker Characters</key>
              </entry>
              <entry>
                <key>Remove Trailing Newlines</key>
                <value>true</value>
              </entry>
            </properties>
            <runDurationMillis>0</runDurationMillis>
            <schedulingPeriod>0 sec</schedulingPeriod>
            <schedulingStrategy>TIMER_DRIVEN</schedulingStrategy>
            <yieldDuration>1 sec</yieldDuration>
          </config>
          <name>SplitText</name>
          <relationships>
            <autoTerminate>true</autoTerminate>
            <name>failure</name>
          </relationships>
          <relationships>
            <autoTerminate>true</autoTerminate>
            <name>original</name>
          </relationships>
          <relationships>
            <autoTerminate>false</autoTerminate>
            <name>splits</name>
          </relationships>
          <style></style>
          <type>org.apache.nifi.processors.standard.SplitText</type>
        </processors>
        <processors>
          <id>1eaf4416-015c-1000-0000-000000000000</id>
          <parentGroupId>1eacb88f-015c-1000-0000-000000000000</parentGroupId>
          <position>
            <x>908.7661789783936</x>
            <y>531.2013382477428</y>
          </position>
          <config>
            <bulletinLevel>WARN</bulletinLevel>
            <comments></comments>
            <concurrentlySchedulableTaskCount>1</concurrentlySchedulableTaskCount>
            <descriptors>
              <entry>
                <key>Routing Strategy</key>
                <value>
                  <name>Routing Strategy</name>
                </value>
              </entry>
              <entry>
                <key>Matching Strategy</key>
                <value>
                  <name>Matching Strategy</name>
                </value>
              </entry>
              <entry>
                <key>Character Set</key>
                <value>
                  <name>Character Set</name>
                </value>
              </entry>
              <entry>
                <key>Ignore Leading/Trailing Whitespace</key>
                <value>
                  <name>Ignore Leading/Trailing Whitespace</name>
                </value>
              </entry>
              <entry>
                <key>Ignore Case</key>
                <value>
                  <name>Ignore Case</name>
                </value>
              </entry>
              <entry>
                <key>Grouping Regular Expression</key>
                <value>
                  <name>Grouping Regular Expression</name>
                </value>
              </entry>
              <entry>
                <key>namespase</key>
                <value>
                  <name>namespase</name>
                </value>
              </entry>
            </descriptors>
            <executionNode>ALL</executionNode>
            <lossTolerant>false</lossTolerant>
            <penaltyDuration>30 sec</penaltyDuration>
            <properties>
              <entry>
                <key>Routing Strategy</key>
                <value>Route to 'matched' if lines matches any condition</value>
              </entry>
              <entry>
                <key>Matching Strategy</key>
                <value>Starts With</value>
              </entry>
              <entry>
                <key>Character Set</key>
                <value>UTF-8</value>
              </entry>
              <entry>
                <key>Ignore Leading/Trailing Whitespace</key>
                <value>true</value>
              </entry>
              <entry>
                <key>Ignore Case</key>
                <value>false</value>
              </entry>
              <entry>
                <key>Grouping Regular Expression</key>
              </entry>
              <entry>
                <key>namespase</key>
                <value>nsu</value>
              </entry>
            </properties>
            <runDurationMillis>0</runDurationMillis>
            <schedulingPeriod>0 sec</schedulingPeriod>
            <schedulingStrategy>TIMER_DRIVEN</schedulingStrategy>
            <yieldDuration>1 sec</yieldDuration>
          </config>
          <name>RouteText</name>
          <relationships>
            <autoTerminate>true</autoTerminate>
            <name>matched</name>
          </relationships>
          <relationships>
            <autoTerminate>true</autoTerminate>
            <name>original</name>
          </relationships>
          <relationships>
            <autoTerminate>false</autoTerminate>
            <name>unmatched</name>
          </relationships>
          <style></style>
          <type>org.apache.nifi.processors.standard.RouteText</type>
        </processors>
        <processors>
          <id>1eb0e22b-015c-1000-0000-000000000000</id>
          <parentGroupId>1eacb88f-015c-1000-0000-000000000000</parentGroupId>
          <position>
            <x>1750.9944831911675</x>
            <y>276.5972111972493</y>
          </position>
          <config>
            <bulletinLevel>WARN</bulletinLevel>
            <comments></comments>
            <concurrentlySchedulableTaskCount>1</concurrentlySchedulableTaskCount>
            <descriptors>
              <entry>
                <key>Known Brokers</key>
                <value>
                  <name>Known Brokers</name>
                </value>
              </entry>
              <entry>
                <key>Topic Name</key>
                <value>
                  <name>Topic Name</name>
                </value>
              </entry>
              <entry>
                <key>Partition Strategy</key>
                <value>
                  <name>Partition Strategy</name>
                </value>
              </entry>
              <entry>
                <key>Partition</key>
                <value>
                  <name>Partition</name>
                </value>
              </entry>
              <entry>
                <key>Kafka Key</key>
                <value>
                  <name>Kafka Key</name>
                </value>
              </entry>
              <entry>
                <key>Delivery Guarantee</key>
                <value>
                  <name>Delivery Guarantee</name>
                </value>
              </entry>
              <entry>
                <key>Message Delimiter</key>
                <value>
                  <name>Message Delimiter</name>
                </value>
              </entry>
              <entry>
                <key>Max Buffer Size</key>
                <value>
                  <name>Max Buffer Size</name>
                </value>
              </entry>
              <entry>
                <key>Max Record Size</key>
                <value>
                  <name>Max Record Size</name>
                </value>
              </entry>
              <entry>
                <key>Communications Timeout</key>
                <value>
                  <name>Communications Timeout</name>
                </value>
              </entry>
              <entry>
                <key>Async Batch Size</key>
                <value>
                  <name>Async Batch Size</name>
                </value>
              </entry>
              <entry>
                <key>Queue Buffering Max Time</key>
                <value>
                  <name>Queue Buffering Max Time</name>
                </value>
              </entry>
              <entry>
                <key>Compression Codec</key>
                <value>
                  <name>Compression Codec</name>
                </value>
              </entry>
              <entry>
                <key>Client Name</key>
                <value>
                  <name>Client Name</name>
                </value>
              </entry>
            </descriptors>
            <executionNode>ALL</executionNode>
            <lossTolerant>false</lossTolerant>
            <penaltyDuration>30 sec</penaltyDuration>
            <properties>
              <entry>
                <key>Known Brokers</key>
                <value>localhost:9092</value>
              </entry>
              <entry>
                <key>Topic Name</key>
                <value>opcData</value>
              </entry>
              <entry>
                <key>Partition Strategy</key>
                <value>Round Robin</value>
              </entry>
              <entry>
                <key>Partition</key>
              </entry>
              <entry>
                <key>Kafka Key</key>
              </entry>
              <entry>
                <key>Delivery Guarantee</key>
                <value>0</value>
              </entry>
              <entry>
                <key>Message Delimiter</key>
              </entry>
              <entry>
                <key>Max Buffer Size</key>
                <value>5 MB</value>
              </entry>
              <entry>
                <key>Max Record Size</key>
                <value>1 MB</value>
              </entry>
              <entry>
                <key>Communications Timeout</key>
                <value>30 secs</value>
              </entry>
              <entry>
                <key>Async Batch Size</key>
                <value>16384</value>
              </entry>
              <entry>
                <key>Queue Buffering Max Time</key>
              </entry>
              <entry>
                <key>Compression Codec</key>
                <value>none</value>
              </entry>
              <entry>
                <key>Client Name</key>
                <value>nifi</value>
              </entry>
            </properties>
            <runDurationMillis>0</runDurationMillis>
            <schedulingPeriod>0 sec</schedulingPeriod>
            <schedulingStrategy>TIMER_DRIVEN</schedulingStrategy>
            <yieldDuration>1 sec</yieldDuration>
          </config>
          <name>PutKafka</name>
          <relationships>
            <autoTerminate>true</autoTerminate>
            <name>failure</name>
          </relationships>
          <relationships>
            <autoTerminate>true</autoTerminate>
            <name>success</name>
          </relationships>
          <style></style>
          <type>org.apache.nifi.processors.kafka.PutKafka</type>
        </processors>
      </contents>
      <name>GetData</name>
    </processGroups>
    <processGroups>
      <id>31c8145e-015c-1000-0000-000000000000</id>
      <parentGroupId>1c284fc0-015c-1000-0000-000000000000</parentGroupId>
      <position>
        <x>2.2481434051391034</x>
        <y>0.0</y>
      </position>
      <comments></comments>
      <contents>
        <connections>
          <id>015c1000-2149-1d8d-0000-000000000000</id>
          <parentGroupId>31c8145e-015c-1000-0000-000000000000</parentGroupId>
          <backPressureDataSizeThreshold>1 GB</backPressureDataSizeThreshold>
          <backPressureObjectThreshold>10000</backPressureObjectThreshold>
          <destination>
            <groupId>31c8145e-015c-1000-0000-000000000000</groupId>
            <id>015c1000-f785-1d84-0000-000000000000</id>
            <type>PROCESSOR</type>
          </destination>
          <flowFileExpiration>0 sec</flowFileExpiration>
          <labelIndex>1</labelIndex>
          <name></name>
          <selectedRelationships>success</selectedRelationships>
          <source>
            <groupId>31c8145e-015c-1000-0000-000000000000</groupId>
            <id>015c1000-cf9c-1d8c-0000-000000000000</id>
            <type>PROCESSOR</type>
          </source>
          <zIndex>0</zIndex>
        </connections>
        <connections>
          <id>015c1000-ed7c-1d8c-0000-000000000000</id>
          <parentGroupId>31c8145e-015c-1000-0000-000000000000</parentGroupId>
          <backPressureDataSizeThreshold>1 GB</backPressureDataSizeThreshold>
          <backPressureObjectThreshold>10000</backPressureObjectThreshold>
          <destination>
            <groupId>31c8145e-015c-1000-0000-000000000000</groupId>
            <id>015c1000-cf9c-1d8c-0000-000000000000</id>
            <type>PROCESSOR</type>
          </destination>
          <flowFileExpiration>0 sec</flowFileExpiration>
          <labelIndex>1</labelIndex>
          <name></name>
          <selectedRelationships>Success</selectedRelationships>
          <source>
            <groupId>31c8145e-015c-1000-0000-000000000000</groupId>
            <id>015c1000-0c34-1c2d-0000-000000000000</id>
            <type>PROCESSOR</type>
          </source>
          <zIndex>0</zIndex>
        </connections>
        <controllerServices>
          <id>21fd604e-015c-1000-0000-000000000000</id>
          <parentGroupId>1c284fc0-015c-1000-0000-000000000000</parentGroupId>
          <comments></comments>
          <descriptors>
            <entry>
              <key>Endpoint URL</key>
              <value>
                <name>Endpoint URL</name>
              </value>
            </entry>
            <entry>
              <key>Security Policy</key>
              <value>
                <name>Security Policy</name>
              </value>
            </entry>
            <entry>
              <key>Certificate for Server application</key>
              <value>
                <name>Certificate for Server application</name>
              </value>
            </entry>
            <entry>
              <key>Application Name</key>
              <value>
                <name>Application Name</name>
              </value>
            </entry>
          </descriptors>
          <name>StandardOPCUAService</name>
          <properties>
            <entry>
              <key>Endpoint URL</key>
              <value>opc.tcp://10.0.0.20:49320</value>
            </entry>
            <entry>
              <key>Security Policy</key>
              <value>None</value>
            </entry>
            <entry>
              <key>Certificate for Server application</key>
            </entry>
            <entry>
              <key>Application Name</key>
              <value>opcNifi</value>
            </entry>
          </properties>
          <state>ENABLED</state>
          <type>com.hashmapinc.tempus.processors.nifi_opcua_services.StandardOPCUAService</type>
        </controllerServices>
        <processors>
          <id>015c1000-0c34-1c2d-0000-000000000000</id>
          <parentGroupId>31c8145e-015c-1000-0000-000000000000</parentGroupId>
          <position>
            <x>201.0000885129739</x>
            <y>321.9999986815359</y>
          </position>
          <config>
            <bulletinLevel>WARN</bulletinLevel>
            <comments></comments>
            <concurrentlySchedulableTaskCount>1</concurrentlySchedulableTaskCount>
            <descriptors>
              <entry>
                <key>OPC UA Service</key>
                <value>
                  <identifiesControllerService>com.hashmapinc.tempus.processors.nifi_opcua_services.OPCUAService</identifiesControllerService>
                  <name>OPC UA Service</name>
                </value>
              </entry>
              <entry>
                <key>Recursive Depth</key>
                <value>